*Heading
** Job name: L-brick-C3D4 Model name: Model-1
** Generated by: Abaqus/CAE 2020
*Preprint, echo=NO, model=NO, history=NO, contact=NO
**
** PARTS
**
*Part, name=Part-1
*Node
      1,          10.,          20.,          10.
      2,          10.,          20.,           0.
      3,           0.,          20.,           0.
      4,           0.,          20.,          10.
      5,          10.,          10.,           0.
      6,          10.,          10.,          10.
      7,          10.,           0.,          10.
      8,          10.,           0.,           0.
      9,           0.,           0.,           0.
     10,           0.,           0.,          10.
     11,          20.,          20.,          10.
     12,          20.,          20.,           0.
     13,          20.,          10.,          10.
     14,          20.,          10.,           0.
     15,          10.,          20.,           8.
     16,          10.,          20.,           6.
     17,          10.,          20.,           4.
     18,          10.,          20.,           2.
     19,           8.,          20.,           0.
     20,           6.,          20.,           0.
** ... 671 like lines cut
*Element, type=C3D4
   1, 369, 370, 371, 372
   2, 373, 374, 375, 376
   3, 377, 143, 139, 144
   4, 378, 379, 377, 380
   5, 381, 376, 382, 374
   6, 374, 383, 384, 369
   7, 369, 370, 382, 371
   8, 385, 386, 378, 387
   9, 388, 387, 385, 389
  10, 390, 391,  30, 237
  11, 392, 393, 394, 246
  12, 392, 395, 396, 397
  13, 398, 153,  40,  39
  14, 397, 399, 393, 392
  15, 392, 383, 384, 400
  16, 392, 384, 397, 401
  17, 392, 399, 400, 401
  18, 402, 403, 191, 190
  19, 404, 402, 405, 406
  20, 402, 407, 408, 409
** ... 2943 like lines cut
*Nset, nset=Set-1, generate
   1,  691,    1
*Elset, elset=Set-1, generate
    1,  2963,     1
** Section: Section-1
*Solid Section, elset=Set-1, material=Material-1
,
*End Part
**  
**
** ASSEMBLY
**
*Assembly, name=Assembly
**  
*Instance, name=Part-1-1, part=Part-1
*End Instance
**  
*Nset, nset=Set-1, instance=Part-1-1
 11,
*Nset, nset=Set-2, instance=Part-1-1
   7,   8,   9,  10,  47,  48,  49,  50,  55,  56,  57,  58,  77,  78,  79,  80
  81,  82,  83,  84, 273, 274, 275, 276, 277, 278, 279, 280, 281, 282, 283, 284
 285, 286, 287, 288
*Elset, elset=Set-2, instance=Part-1-1
   36,   77,  261,  412,  432,  457,  460,  466,  520,  525,  562,  713,  740,  741,  743,  775
  929,  931, 1023, 1052, 1111, 1118, 1170, 1210, 1219, 1223, 1293, 1390, 1400, 1415, 1434, 1435
 1446, 1449, 1569, 1570, 1593, 1695, 1703, 1707, 1708, 1761, 1782, 1785, 1791, 1869, 1873, 1883
 1884, 1893
*Nset, nset=_PickedSet7, internal, instance=Part-1-1
  11,  12,  13,  14,  89,  90,  91,  92,  97,  98,  99, 100, 101, 102, 103, 104
 105, 106, 107, 108, 305, 306, 307, 308, 309, 310, 311, 312, 313, 314, 315, 316
 317, 318, 319, 320
*Elset, elset=_PickedSet7, internal, instance=Part-1-1
 1944, 1963, 2046, 2082, 2181, 2201, 2216, 2304, 2366, 2403, 2405, 2428, 2533, 2534, 2583, 2608
 2672, 2681, 2716, 2720, 2724, 2732, 2757, 2762, 2789, 2803, 2804, 2812, 2816, 2818, 2820, 2846
 2847, 2856, 2858, 2863, 2866, 2871, 2873, 2879, 2886, 2894, 2895, 2896, 2899, 2906, 2907, 2913
 2952, 2962
*Elset, elset=_Surf-1_S3, internal, instance=Part-1-1
 1944, 1963, 2046, 2082, 2181, 2201, 2216, 2304, 2366, 2403, 2405, 2428, 2533, 2534, 2583, 2608
 2672, 2681, 2716, 2720, 2724, 2732, 2757, 2762, 2789, 2803, 2804, 2812, 2816, 2818, 2820, 2846
 2847, 2856, 2858, 2863, 2866, 2871, 2873, 2879, 2886, 2894, 2895, 2896, 2899, 2906, 2907, 2913
 2952, 2962
*Surface, type=ELEMENT, name=Surf-1
_Surf-1_S3, S3
*End Assembly
** 
** MATERIALS
** 
*Material, name=Material-1
*Elastic
210000., 0.3
** ----------------------------------------------------------------
** 
** STEP: Step-1
** 
*Step, name=Step-1, nlgeom=NO
*Static
1., 1., 1e-05, 1.
** 
** BOUNDARY CONDITIONS
** 
** Name: BC-1 Type: Displacement/Rotation
*Boundary
Set-2, 1, 1
** Name: BC-2 Type: Displacement/Rotation
*Boundary
Set-2, 2, 2
** Name: BC-3 Type: Displacement/Rotation
*Boundary
Set-2, 3, 3
** Name: BC-4 Type: Displacement/Rotation
*Boundary
_PickedSet7, 2, 2, -1.
** 
** OUTPUT REQUESTS
** 
*Restart, write, frequency=0
** 
** FIELD OUTPUT: F-Output-1
** 
*Output, field, variable=PRESELECT
** 
** HISTORY OUTPUT: H-Output-1
** 
*Output, history, variable=PRESELECT
*End Step
